Circuit: * C:\Users\merce\Documents\Cross-Point-Project\LTspice files\Example Schematics\switch-par-test-r3.asc

Direct Newton iteration for .op point succeeded.

Date: Tue Feb 11 10:05:54 2025
Total elapsed time: 0.096 seconds.

tnom = 27
temp = 27
method = modified trap
totiter = 2643
traniter = 2640
tranpoints = 1321
accept = 1265
rejected = 56
matrix size = 12
fillins = 0
solver = Normal
Avg thread counts: 1.1/1.2/1.2/1.1
Matrix Compiler1: off  [0.2]/0.2/0.2
Matrix Compiler2: off  [0.1]/0.2/0.2

